  
       XFOIL         Version 6.97
  
 Calculated polar for: NACA 3415                                       
  
 1 1 Reynolds number fixed          Mach number fixed         
  
 xtrf =   1.000 (top)        1.000 (bottom)  
 Mach =   0.750     Re =     0.500 e 6     Ncrit =   9.000
  
   alpha    CL        CD       CDp       CM     Top_Xtr  Bot_Xtr
  ------ -------- --------- --------- -------- -------- --------

  
       XFOIL         Version 6.97
  
 Calculated polar for: NACA 3415                                       
  
 1 1 Reynolds number fixed          Mach number fixed         
  
 xtrf =   1.000 (top)        1.000 (bottom)  
 Mach =   0.250     Re =     0.125 e 6     Ncrit =   9.000
  
   alpha    CL        CD       CDp       CM     Top_Xtr  Bot_Xtr
  ------ -------- --------- --------- -------- -------- --------
 -20.000  -0.5604   0.23685   0.23133   0.0096   1.0000   0.0572
 -19.000  -0.5533   0.23477   0.22932  -0.0043   1.0000   0.0630
 -18.000  -0.4937   0.21110   0.20562  -0.0057   1.0000   0.0667
 -17.000  -0.4657   0.20012   0.19466  -0.0138   1.0000   0.0753
 -16.000  -0.4386   0.18533   0.17993  -0.0203   1.0000   0.0788
 -15.000  -0.4075   0.17393   0.16855  -0.0254   1.0000   0.0905
 -14.000  -0.3928   0.15954   0.15423  -0.0318   1.0000   0.0949
 -13.000  -0.3565   0.14691   0.14164  -0.0339   1.0000   0.1052
 -12.000  -0.3530   0.13333   0.12815  -0.0392   1.0000   0.1150
 -11.000  -0.3635   0.12343   0.11840  -0.0445   1.0000   0.1309
 -10.000  -0.3538   0.10762   0.10273  -0.0435   1.0000   0.1359
  -9.000  -0.3605   0.09784   0.09316  -0.0395   1.0000   0.1488
  -8.000  -0.6681   0.05538   0.05050  -0.0456   1.0000   0.0865
  -7.000  -0.6352   0.03705   0.03023  -0.0511   0.9848   0.0949
  -6.000  -0.4978   0.02984   0.02195  -0.0590   0.9564   0.1141
  -5.000  -0.3483   0.02577   0.01749  -0.0662   0.9270   0.1452
  -4.000  -0.1917   0.02272   0.01429  -0.0736   0.8980   0.1988
  -3.000  -0.0367   0.02019   0.01198  -0.0801   0.8695   0.2903
  -2.000   0.1030   0.01765   0.01013  -0.0827   0.8385   0.4424
  -1.000   0.2048   0.01602   0.00967  -0.0764   0.7946   0.7394
   0.000   0.3744   0.01569   0.00928  -0.0807   0.7556   0.9486
   1.000   0.5673   0.01559   0.00865  -0.0959   0.7058   1.0000
   2.000   0.6499   0.01617   0.00891  -0.0902   0.6609   1.0000
   3.000   0.7470   0.01695   0.00932  -0.0861   0.6219   1.0000
   4.000   0.8349   0.01815   0.01046  -0.0805   0.5815   1.0000
   5.000   0.9368   0.01926   0.01138  -0.0770   0.5425   1.0000
   6.000   1.0281   0.02065   0.01287  -0.0718   0.4993   1.0000
   7.000   1.1229   0.02188   0.01405  -0.0669   0.4533   1.0000
   8.000   1.2067   0.02305   0.01527  -0.0601   0.4011   1.0000
   9.000   1.2683   0.02453   0.01687  -0.0501   0.3423   1.0000
  10.000   1.2988   0.02718   0.01935  -0.0365   0.2804   1.0000
  11.000   1.3059   0.03245   0.02470  -0.0240   0.2187   1.0000
  12.000   1.3070   0.04024   0.03246  -0.0151   0.1696   1.0000
  13.000   1.3120   0.04947   0.04169  -0.0092   0.1356   1.0000
  14.000   1.3127   0.06027   0.05285  -0.0056   0.1133   1.0000
  15.000   1.3106   0.07258   0.06549  -0.0037   0.0983   1.0000
  16.000   1.2542   0.09291   0.08668  -0.0085   0.0903   1.0000
  17.000   1.1990   0.11540   0.10957  -0.0163   0.0831   1.0000
  18.000   0.9052   0.21117   0.20592  -0.0731   0.1053   1.0000
  19.000   0.9457   0.23625   0.23113  -0.0778   0.1183   1.0000
  20.000   0.9487   0.24712   0.24198  -0.0922   0.1034   1.0000

  
       XFOIL         Version 6.97
  
 Calculated polar for: NACA 3415                                       
  
 1 1 Reynolds number fixed          Mach number fixed         
  
 xtrf =   1.000 (top)        1.000 (bottom)  
 Mach =   0.250     Re =     0.250 e 6     Ncrit =   9.000
  
   alpha    CL        CD       CDp       CM     Top_Xtr  Bot_Xtr
  ------ -------- --------- --------- -------- -------- --------
 -20.000  -0.5635   0.23379   0.22987   0.0092   1.0000   0.0354
 -19.000  -0.5308   0.22126   0.21736   0.0002   1.0000   0.0410
 -18.000  -0.5025   0.20654   0.20265  -0.0079   1.0000   0.0427
 -17.000  -0.4629   0.19468   0.19080  -0.0126   1.0000   0.0462
 -16.000  -0.4589   0.18172   0.17787  -0.0252   1.0000   0.0514
 -15.000  -0.4110   0.16657   0.16273  -0.0260   1.0000   0.0545
 -14.000  -0.4103   0.15347   0.14968  -0.0367   1.0000   0.0628
 -13.000  -0.3771   0.13809   0.13434  -0.0380   1.0000   0.0658
 -12.000  -0.3590   0.12542   0.12173  -0.0418   1.0000   0.0731
 -11.000  -0.4044   0.09921   0.09557  -0.0509   1.0000   0.0572
 -10.000  -0.7994   0.04435   0.04003  -0.0637   1.0000   0.0496
  -9.000  -0.7400   0.03216   0.02665  -0.0692   0.9841   0.0553
  -8.000  -0.6131   0.02577   0.01923  -0.0751   0.9656   0.0633
  -7.000  -0.4756   0.02156   0.01458  -0.0803   0.9455   0.0766
  -6.000  -0.3372   0.01786   0.01073  -0.0848   0.9253   0.0978
  -5.000  -0.2056   0.01567   0.00848  -0.0869   0.9008   0.1289
  -4.000  -0.0843   0.01386   0.00668  -0.0867   0.8703   0.1776
  -3.000   0.0302   0.01250   0.00548  -0.0853   0.8319   0.2528
  -2.000   0.1419   0.01147   0.00464  -0.0833   0.7856   0.3621
  -1.000   0.2455   0.01045   0.00431  -0.0800   0.7343   0.5872
   0.000   0.3454   0.01005   0.00447  -0.0745   0.6835   0.8271
   1.000   0.4818   0.01059   0.00486  -0.0762   0.6351   0.9589
   2.000   0.6680   0.01123   0.00509  -0.0905   0.5889   1.0000
   3.000   0.7568   0.01174   0.00539  -0.0855   0.5513   1.0000
   4.000   0.8500   0.01251   0.00592  -0.0807   0.5161   1.0000
   5.000   0.9437   0.01335   0.00670  -0.0759   0.4805   1.0000
   6.000   1.0375   0.01422   0.00754  -0.0711   0.4411   1.0000
   7.000   1.1274   0.01523   0.00855  -0.0656   0.3967   1.0000
   8.000   1.2064   0.01650   0.00981  -0.0584   0.3448   1.0000
   9.000   1.2625   0.01849   0.01172  -0.0479   0.2857   1.0000
  10.000   1.3043   0.02186   0.01499  -0.0374   0.2211   1.0000
  11.000   1.3246   0.02757   0.02056  -0.0276   0.1617   1.0000
  12.000   1.3344   0.03551   0.02853  -0.0205   0.1211   1.0000
  13.000   1.3365   0.04541   0.03861  -0.0160   0.0967   1.0000
  14.000   1.3343   0.05684   0.05027  -0.0137   0.0807   1.0000
  15.000   1.3307   0.06913   0.06275  -0.0128   0.0688   1.0000
  16.000   1.3302   0.08218   0.07627  -0.0137   0.0613   1.0000
  17.000   1.3198   0.09650   0.09090  -0.0156   0.0547   1.0000
  18.000   1.2943   0.11479   0.10977  -0.0219   0.0503   1.0000
  19.000   1.2663   0.13420   0.12959  -0.0305   0.0467   1.0000
  20.000   1.1734   0.16830   0.16435  -0.0507   0.0448   1.0000

  
       XFOIL         Version 6.97
  
 Calculated polar for: NACA 3415                                       
  
 1 1 Reynolds number fixed          Mach number fixed         
  
 xtrf =   1.000 (top)        1.000 (bottom)  
 Mach =   0.250     Re =     0.500 e 6     Ncrit =   9.000
  
   alpha    CL        CD       CDp       CM     Top_Xtr  Bot_Xtr
  ------ -------- --------- --------- -------- -------- --------
 -20.000  -0.5648   0.23249   0.22970   0.0097   1.0000   0.0242
 -19.000  -0.5443   0.21480   0.21202  -0.0021   1.0000   0.0264
 -18.000  -0.5018   0.20401   0.20124  -0.0063   1.0000   0.0279
 -17.000  -0.4768   0.18966   0.18690  -0.0160   1.0000   0.0330
 -16.000  -0.4607   0.17144   0.16870  -0.0239   1.0000   0.0339
 -15.000  -0.4196   0.16179   0.15906  -0.0268   1.0000   0.0364
 -14.000  -0.4134   0.14387   0.14116  -0.0367   1.0000   0.0415
 -13.000  -0.7747   0.05628   0.05291  -0.0821   1.0000   0.0326
 -12.000  -0.8660   0.03695   0.03301  -0.0897   1.0000   0.0329
 -11.000  -0.9023   0.02838   0.02371  -0.0795   0.9909   0.0343
 -10.000  -0.7912   0.02297   0.01781  -0.0835   0.9772   0.0387
  -9.000  -0.6563   0.01862   0.01298  -0.0893   0.9667   0.0451
  -8.000  -0.5310   0.01598   0.01002  -0.0909   0.9479   0.0525
  -6.000  -0.3071   0.01220   0.00593  -0.0876   0.8944   0.0799
  -5.000  -0.1953   0.01101   0.00470  -0.0858   0.8607   0.1058
  -4.000  -0.0831   0.01011   0.00377  -0.0841   0.8195   0.1458
  -3.000   0.0301   0.00950   0.00315  -0.0828   0.7733   0.2040
  -2.000   0.1423   0.00904   0.00275  -0.0814   0.7224   0.2887
  -1.000   0.2523   0.00861   0.00253  -0.0798   0.6693   0.4164
   0.000   0.3574   0.00809   0.00260  -0.0771   0.6182   0.6586
   1.000   0.4607   0.00796   0.00289  -0.0733   0.5731   0.8539
   2.000   0.5874   0.00845   0.00336  -0.0741   0.5345   0.9672
   3.000   0.7594   0.00909   0.00380  -0.0857   0.4965   0.9991
   4.000   0.8529   0.00963   0.00416  -0.0811   0.4645   1.0000
   5.000   0.9453   0.01026   0.00469  -0.0759   0.4311   1.0000
   6.000   1.0417   0.01094   0.00534  -0.0716   0.3925   1.0000
   7.000   1.1348   0.01194   0.00622  -0.0667   0.3445   1.0000
   8.000   1.2166   0.01338   0.00750  -0.0601   0.2868   1.0000
   9.000   1.2823   0.01551   0.00944  -0.0514   0.2230   1.0000
  10.000   1.3341   0.01879   0.01248  -0.0422   0.1595   1.0000
  11.000   1.3758   0.02323   0.01684  -0.0336   0.1122   1.0000
  12.000   1.4008   0.02970   0.02333  -0.0262   0.0825   1.0000
  13.000   1.4178   0.03798   0.03183  -0.0212   0.0665   1.0000
  14.000   1.4113   0.04979   0.04389  -0.0185   0.0557   1.0000
  15.000   1.4147   0.06165   0.05609  -0.0180   0.0490   1.0000
  16.000   1.3899   0.07744   0.07221  -0.0194   0.0439   1.0000
  17.000   1.3778   0.09257   0.08770  -0.0220   0.0399   1.0000
  18.000   1.3512   0.10976   0.10513  -0.0263   0.0361   1.0000
  19.000   1.3377   0.12624   0.12203  -0.0320   0.0336   1.0000
  20.000   1.3198   0.14414   0.14026  -0.0400   0.0309   1.0000

  
       XFOIL         Version 6.97
  
 Calculated polar for: NACA 3415                                       
  
 1 1 Reynolds number fixed          Mach number fixed         
  
 xtrf =   1.000 (top)        1.000 (bottom)  
 Mach =   0.250     Re =     1.000 e 6     Ncrit =   9.000
  
   alpha    CL        CD       CDp       CM     Top_Xtr  Bot_Xtr
  ------ -------- --------- --------- -------- -------- --------
 -20.000  -0.5731   0.22801   0.22604   0.0089   1.0000   0.0158
 -19.000  -0.5404   0.21396   0.21199  -0.0002   1.0000   0.0199
 -18.000  -0.5124   0.19835   0.19638  -0.0082   1.0000   0.0200
 -17.000  -0.4915   0.18197   0.17999  -0.0151   1.0000   0.0176
 -16.000  -0.6603   0.12330   0.12120  -0.0410   1.0000   0.0227
 -15.000  -0.9070   0.06891   0.06621  -0.0730   1.0000   0.0225
 -14.000  -1.0116   0.03848   0.03521  -0.0949   1.0000   0.0227
 -13.000  -1.0833   0.02809   0.02441  -0.0870   1.0000   0.0232
 -12.000  -0.9896   0.02237   0.01816  -0.0902   0.9889   0.0254
 -11.000  -0.8792   0.01782   0.01314  -0.0924   0.9787   0.0284
 -10.000  -0.7549   0.01533   0.01039  -0.0940   0.9653   0.0322
  -9.000  -0.6528   0.01315   0.00795  -0.0906   0.9402   0.0370
  -8.000  -0.5443   0.01183   0.00642  -0.0878   0.9121   0.0427
  -7.000  -0.4325   0.01065   0.00509  -0.0859   0.8817   0.0513
  -6.000  -0.3188   0.00966   0.00397  -0.0844   0.8475   0.0652
  -5.000  -0.2044   0.00889   0.00314  -0.0831   0.8070   0.0874
  -4.000  -0.0894   0.00837   0.00253  -0.0820   0.7606   0.1187
  -3.000   0.0253   0.00795   0.00212  -0.0811   0.7113   0.1672
  -2.000   0.1397   0.00770   0.00187  -0.0803   0.6590   0.2307
  -1.000   0.2536   0.00751   0.00176  -0.0794   0.6072   0.3171
   0.000   0.3656   0.00720   0.00177  -0.0785   0.5600   0.4784
   1.000   0.4760   0.00693   0.00196  -0.0770   0.5192   0.6858
   2.000   0.5837   0.00684   0.00230  -0.0745   0.4855   0.8636
   3.000   0.7038   0.00718   0.00272  -0.0743   0.4564   0.9719
   4.000   0.8594   0.00774   0.00316  -0.0825   0.4237   0.9975
   5.000   0.9641   0.00832   0.00358  -0.0798   0.3864   1.0000
   6.000   1.0587   0.00903   0.00415  -0.0750   0.3420   1.0000
   7.000   1.1532   0.01013   0.00502  -0.0705   0.2861   1.0000
   8.000   1.2412   0.01161   0.00624  -0.0650   0.2228   1.0000
   9.000   1.3097   0.01367   0.00802  -0.0563   0.1594   1.0000
  10.000   1.3724   0.01627   0.01043  -0.0479   0.1109   1.0000
  11.000   1.4266   0.01967   0.01376  -0.0396   0.0780   1.0000
  12.000   1.4715   0.02420   0.01832  -0.0321   0.0587   1.0000
  13.000   1.5055   0.03029   0.02456  -0.0259   0.0466   1.0000
  14.000   1.5304   0.03810   0.03261  -0.0216   0.0400   1.0000
  15.000   1.5322   0.04924   0.04406  -0.0191   0.0348   1.0000
  16.000   1.5264   0.06212   0.05725  -0.0187   0.0314   1.0000
  17.000   1.4868   0.07984   0.07531  -0.0209   0.0280   1.0000
  18.000   1.4657   0.09616   0.09200  -0.0242   0.0265   1.0000
  19.000   1.4339   0.11445   0.11061  -0.0295   0.0247   1.0000
  20.000   1.3953   0.13453   0.13099  -0.0373   0.0230   1.0000

  
       XFOIL         Version 6.97
  
 Calculated polar for: NACA 3415                                       
  
 1 1 Reynolds number fixed          Mach number fixed         
  
 xtrf =   1.000 (top)        1.000 (bottom)  
 Mach =   0.250     Re =     2.000 e 6     Ncrit =   9.000
  
   alpha    CL        CD       CDp       CM     Top_Xtr  Bot_Xtr
  ------ -------- --------- --------- -------- -------- --------
 -20.000  -0.5981   0.21688   0.21546   0.0065   1.0000   0.0110
 -19.000  -0.5745   0.20100   0.19957  -0.0023   1.0000   0.0116
 -18.000  -0.8041   0.13071   0.12891  -0.0384   1.0000   0.0169
 -17.000  -0.9272   0.09590   0.09380  -0.0587   1.0000   0.0172
 -16.000  -1.1544   0.05090   0.04826  -0.0876   1.0000   0.0166
 -15.000  -1.2218   0.02781   0.02458  -0.1041   1.0000   0.0169
 -14.000  -1.2200   0.02220   0.01862  -0.0944   0.9959   0.0178
 -13.000  -1.1085   0.01837   0.01445  -0.0960   0.9884   0.0194
 -12.000  -0.9993   0.01553   0.01129  -0.0950   0.9755   0.0207
 -11.000  -0.8967   0.01336   0.00891  -0.0915   0.9548   0.0241
 -10.000  -0.7875   0.01201   0.00737  -0.0886   0.9293   0.0261
  -9.000  -0.6775   0.01057   0.00572  -0.0860   0.8981   0.0312
  -8.000  -0.5624   0.00961   0.00457  -0.0844   0.8662   0.0365
  -7.000  -0.4454   0.00884   0.00369  -0.0833   0.8336   0.0434
  -6.000  -0.3285   0.00819   0.00293  -0.0823   0.7923   0.0550
  -5.000  -0.2116   0.00767   0.00235  -0.0815   0.7472   0.0728
  -4.000  -0.0946   0.00733   0.00192  -0.0809   0.6979   0.0968
  -3.000   0.0221   0.00706   0.00161  -0.0804   0.6457   0.1324
  -2.000   0.1386   0.00688   0.00142  -0.0799   0.5934   0.1850
  -1.000   0.2552   0.00674   0.00135  -0.0797   0.5471   0.2541
   0.000   0.3722   0.00663   0.00136  -0.0795   0.5079   0.3404
   1.000   0.4874   0.00634   0.00147  -0.0792   0.4752   0.5192
   2.000   0.6025   0.00617   0.00168  -0.0787   0.4471   0.6911
   3.000   0.7150   0.00610   0.00200  -0.0774   0.4195   0.8593
   4.000   0.8263   0.00641   0.00240  -0.0755   0.3849   0.9701
   5.000   0.9682   0.00711   0.00291  -0.0808   0.3382   0.9969
   6.000   1.0743   0.00799   0.00353  -0.0785   0.2822   1.0000
   7.000   1.1686   0.00905   0.00435  -0.0737   0.2254   1.0000
   8.000   1.2580   0.01058   0.00554  -0.0684   0.1604   1.0000
   9.000   1.3365   0.01228   0.00702  -0.0612   0.1119   1.0000
  10.000   1.4060   0.01436   0.00895  -0.0530   0.0774   1.0000
  11.000   1.4709   0.01694   0.01147  -0.0452   0.0555   1.0000
  12.000   1.5316   0.02011   0.01470  -0.0381   0.0435   1.0000
  13.000   1.5810   0.02451   0.01920  -0.0313   0.0351   1.0000
  14.000   1.6176   0.03051   0.02535  -0.0255   0.0294   1.0000
  15.000   1.6453   0.03814   0.03321  -0.0213   0.0261   1.0000
  16.000   1.6488   0.04905   0.04436  -0.0188   0.0226   1.0000
  17.000   1.6425   0.06180   0.05742  -0.0182   0.0210   1.0000
  18.000   1.6211   0.07699   0.07293  -0.0195   0.0196   1.0000
  19.000   1.5860   0.09452   0.09075  -0.0228   0.0182   1.0000
  20.000   1.5291   0.11572   0.11230  -0.0292   0.0168   1.0000

  
       XFOIL         Version 6.97
  
 Calculated polar for: NACA 3415                                       
  
 1 1 Reynolds number fixed          Mach number fixed         
  
 xtrf =   1.000 (top)        1.000 (bottom)  
 Mach =   0.250     Re =     4.000 e 6     Ncrit =   9.000
  
   alpha    CL        CD       CDp       CM     Top_Xtr  Bot_Xtr
  ------ -------- --------- --------- -------- -------- --------
 -20.000  -0.8133   0.16225   0.16091  -0.0204   1.0000   0.0133
 -19.000  -0.8873   0.13274   0.13120  -0.0383   1.0000   0.0138
 -18.000  -1.1073   0.08564   0.08369  -0.0682   1.0000   0.0136
 -17.000  -1.3792   0.03540   0.03272  -0.1044   1.0000   0.0131
 -16.000  -1.3881   0.02379   0.02070  -0.1074   1.0000   0.0135
 -15.000  -1.3482   0.01950   0.01611  -0.0993   0.9951   0.0141
 -14.000  -1.2354   0.01653   0.01289  -0.0990   0.9861   0.0147
 -13.000  -1.1411   0.01407   0.01015  -0.0940   0.9643   0.0164
 -12.000  -1.0366   0.01234   0.00824  -0.0900   0.9413   0.0185
 -11.000  -0.9238   0.01111   0.00685  -0.0873   0.9153   0.0199
 -10.000  -0.8096   0.00991   0.00548  -0.0851   0.8836   0.0235
  -9.000  -0.6917   0.00908   0.00451  -0.0836   0.8521   0.0260
  -8.000  -0.5741   0.00830   0.00360  -0.0824   0.8154   0.0317
  -7.000  -0.4551   0.00770   0.00291  -0.0816   0.7753   0.0385
  -6.000  -0.3362   0.00726   0.00235  -0.0809   0.7274   0.0475
  -5.000  -0.2175   0.00689   0.00190  -0.0805   0.6776   0.0613
  -4.000  -0.0983   0.00665   0.00157  -0.0803   0.6284   0.0785
  -3.000   0.0203   0.00641   0.00132  -0.0801   0.5796   0.1092
  -2.000   0.1390   0.00625   0.00117  -0.0801   0.5342   0.1512
  -1.000   0.2576   0.00617   0.00111  -0.0802   0.4936   0.2032
   0.000   0.3767   0.00610   0.00112  -0.0804   0.4597   0.2703
   1.000   0.4955   0.00601   0.00120  -0.0806   0.4330   0.3607
   2.000   0.6128   0.00580   0.00135  -0.0807   0.4070   0.5302
   3.000   0.7299   0.00576   0.00158  -0.0806   0.3786   0.6803
   4.000   0.8431   0.00593   0.00196  -0.0796   0.3356   0.8318
   5.000   0.9490   0.00636   0.00248  -0.0768   0.2858   0.9600
   6.000   1.0763   0.00728   0.00316  -0.0790   0.2262   0.9975
   7.000   1.1770   0.00848   0.00403  -0.0757   0.1624   1.0000
   8.000   1.2727   0.00975   0.00505  -0.0713   0.1141   1.0000
   9.000   1.3626   0.01121   0.00631  -0.0660   0.0775   1.0000
  10.000   1.4392   0.01278   0.00778  -0.0584   0.0553   1.0000
  11.000   1.5147   0.01465   0.00962  -0.0513   0.0425   1.0000
  12.000   1.5835   0.01706   0.01206  -0.0441   0.0339   1.0000
  13.000   1.6434   0.02033   0.01540  -0.0370   0.0275   1.0000
  14.000   1.6913   0.02493   0.02009  -0.0303   0.0223   1.0000
  15.000   1.7344   0.03050   0.02583  -0.0249   0.0204   1.0000
  16.000   1.7536   0.03890   0.03442  -0.0205   0.0176   1.0000
  17.000   1.7615   0.04939   0.04515  -0.0181   0.0160   1.0000
  18.000   1.7581   0.06161   0.05762  -0.0172   0.0152   1.0000
  19.000   1.7285   0.07742   0.07371  -0.0184   0.0140   1.0000
  20.000   1.6866   0.09539   0.09196  -0.0218   0.0127   1.0000

  
       XFOIL         Version 6.97
  
 Calculated polar for: NACA 3415                                       
  
 1 1 Reynolds number fixed          Mach number fixed         
  
 xtrf =   1.000 (top)        1.000 (bottom)  
 Mach =   0.250     Re =     8.000 e 6     Ncrit =   9.000
  
   alpha    CL        CD       CDp       CM     Top_Xtr  Bot_Xtr
  ------ -------- --------- --------- -------- -------- --------
 -20.000  -0.9312   0.14131   0.13999  -0.0340   1.0000   0.0104
 -19.000  -1.3230   0.07217   0.07024  -0.0807   1.0000   0.0102
 -18.000  -1.5286   0.03221   0.02965  -0.1101   1.0000   0.0102
 -17.000  -1.5173   0.02281   0.01994  -0.1110   1.0000   0.0103
 -16.000  -1.4758   0.01840   0.01523  -0.1030   0.9948   0.0106
 -15.000  -1.3817   0.01537   0.01194  -0.0988   0.9799   0.0120
 -14.000  -1.2828   0.01330   0.00970  -0.0937   0.9579   0.0136
 -13.000  -1.1724   0.01186   0.00810  -0.0900   0.9340   0.0145
 -12.000  -1.0572   0.01075   0.00682  -0.0872   0.9021   0.0148
 -11.000  -0.9422   0.00957   0.00547  -0.0847   0.8613   0.0181
 -10.000  -0.8228   0.00874   0.00453  -0.0832   0.8311   0.0199
  -9.000  -0.7031   0.00801   0.00369  -0.0819   0.7944   0.0236
  -8.000  -0.5825   0.00747   0.00303  -0.0811   0.7517   0.0262
  -7.000  -0.4625   0.00699   0.00245  -0.0804   0.7017   0.0328
  -6.000  -0.3421   0.00662   0.00199  -0.0801   0.6550   0.0408
  -5.000  -0.2215   0.00634   0.00163  -0.0799   0.6076   0.0508
  -4.000  -0.1010   0.00613   0.00136  -0.0799   0.5603   0.0651
  -3.000   0.0188   0.00595   0.00115  -0.0800   0.5129   0.0904
  -2.000   0.1396   0.00581   0.00103  -0.0803   0.4808   0.1215
  -1.000   0.2602   0.00570   0.00096  -0.0808   0.4517   0.1606
   0.000   0.3809   0.00560   0.00096  -0.0813   0.4274   0.2182
   1.000   0.5014   0.00555   0.00101  -0.0818   0.4031   0.2812
   2.000   0.6203   0.00560   0.00115  -0.0820   0.3704   0.3670
   3.000   0.7371   0.00565   0.00139  -0.0819   0.3282   0.5110
   4.000   0.8518   0.00591   0.00175  -0.0814   0.2784   0.6483
   5.000   0.9644   0.00634   0.00225  -0.0804   0.2261   0.7780
   6.000   1.0703   0.00693   0.00294  -0.0779   0.1706   0.9284
   7.000   1.1825   0.00791   0.00375  -0.0767   0.1174   0.9971
   8.000   1.2865   0.00901   0.00464  -0.0739   0.0812   1.0000
   9.000   1.3845   0.01021   0.00568  -0.0699   0.0554   1.0000
  10.000   1.4729   0.01143   0.00683  -0.0640   0.0420   1.0000
  11.000   1.5533   0.01288   0.00826  -0.0570   0.0330   1.0000
  12.000   1.6292   0.01474   0.01012  -0.0500   0.0267   1.0000
  13.000   1.6972   0.01725   0.01266  -0.0428   0.0214   1.0000
  14.000   1.7561   0.02063   0.01611  -0.0357   0.0185   1.0000
  15.000   1.8070   0.02506   0.02065  -0.0293   0.0160   1.0000
  16.000   1.8440   0.03122   0.02696  -0.0237   0.0146   1.0000
  17.000   1.8602   0.03991   0.03581  -0.0193   0.0120   1.0000
  18.000   1.8675   0.05048   0.04661  -0.0169   0.0115   1.0000
  19.000   1.8593   0.06307   0.05943  -0.0160   0.0111   1.0000
  20.000   1.8265   0.07899   0.07560  -0.0173   0.0105   1.0000

  
       XFOIL         Version 6.97
  
 Calculated polar for: NACA 3415                                       
  
 1 1 Reynolds number fixed          Mach number fixed         
  
 xtrf =   1.000 (top)        1.000 (bottom)  
 Mach =   0.350     Re =     0.075 e 6     Ncrit =   9.000
  
   alpha    CL        CD       CDp       CM     Top_Xtr  Bot_Xtr
  ------ -------- --------- --------- -------- -------- --------
 -20.000  -0.3027   0.18169   0.17564  -0.0255   1.0000   0.0918
 -19.000  -0.2722   0.16732   0.16131  -0.0292   1.0000   0.0957
 -18.000  -0.2478   0.15847   0.15248  -0.0328   1.0000   0.1080
 -17.000  -0.2321   0.14971   0.14378  -0.0366   1.0000   0.1139
 -16.000  -0.2058   0.14030   0.13443  -0.0378   1.0000   0.1257
 -15.000  -0.2162   0.13742   0.13168  -0.0410   1.0000   0.1332
 -14.000  -0.1873   0.12722   0.12157  -0.0390   1.0000   0.1515
 -13.000  -0.1859   0.11988   0.11441  -0.0376   1.0000   0.1591
 -12.000  -0.1945   0.11618   0.11086  -0.0345   1.0000   0.1767
 -11.000  -0.1902   0.10843   0.10331  -0.0289   1.0000   0.1905
 -10.000  -0.2607   0.10825   0.10330  -0.0279   1.0000   0.2056
  -9.000  -0.2311   0.09880   0.09406  -0.0191   1.0000   0.2226
  -8.000  -0.2450   0.09198   0.08739  -0.0166   0.9968   0.2451
  -7.000  -0.2298   0.07710   0.07243  -0.0259   0.9773   0.2675
  -6.000  -0.4726   0.03657   0.03134  -0.0456   0.9647   0.1514
  -5.000  -0.4401   0.02063   0.01434  -0.0496   0.9254   0.1649
  -4.000  -0.3514   0.03495   0.02604  -0.0567   0.9415   0.2020
  -3.000  -0.2041   0.03140   0.02225  -0.0630   0.8981   0.2705
  -2.000  -0.0534   0.02928   0.02034  -0.0684   0.8562   0.3953
  -1.000   0.0825   0.02746   0.01987  -0.0684   0.8156   0.6604
   0.000   0.3858   0.02653   0.01902  -0.0946   0.7859   1.0000
   1.000   0.4275   0.02785   0.01984  -0.0835   0.7372   1.0000
   2.000   0.5544   0.02802   0.01957  -0.0828   0.7025   1.0000
   3.000   0.6068   0.03152   0.02291  -0.0733   0.6563   1.0000
   4.000   0.7411   0.03197   0.02322  -0.0727   0.6218   1.0000
   5.000   0.7828   0.03702   0.02835  -0.0630   0.5746   1.0000
   6.000   0.8250   0.04256   0.03402  -0.0539   0.5287   1.0000
   7.000   1.0012   0.03978   0.03137  -0.0540   0.4883   1.0000
   8.000   1.0392   0.04418   0.03600  -0.0427   0.4375   1.0000
   9.000   1.1681   0.04239   0.03432  -0.0367   0.3792   1.0000
  10.000   1.1673   0.04832   0.04051  -0.0238   0.3236   1.0000
  11.000   1.1553   0.05759   0.05002  -0.0155   0.2706   1.0000
  12.000   1.1383   0.07001   0.06258  -0.0114   0.2260   1.0000
  13.000   0.9091   0.12145   0.11419  -0.0322   0.2038   1.0000
  14.000   0.8765   0.14579   0.13859  -0.0412   0.1804   1.0000
  15.000   0.8402   0.17339   0.16624  -0.0554   0.1720   1.0000
  16.000   0.8543   0.19570   0.18868  -0.0644   0.1805   1.0000
  17.000   0.8625   0.21848   0.21155  -0.0766   0.2038   1.0000
  18.000   0.9323   0.24422   0.23745  -0.0781   0.1832   1.0000
  19.000   0.9221   0.24615   0.23932  -0.0919   0.1653   1.0000
  20.000   0.9509   0.26155   0.25477  -0.1013   0.1552   1.0000

  
       XFOIL         Version 6.97
  
 Calculated polar for: NACA 3415                                       
  
 1 1 Reynolds number fixed          Mach number fixed         
  
 xtrf =   1.000 (top)        1.000 (bottom)  
 Mach =   0.350     Re =     0.125 e 6     Ncrit =   9.000
  
   alpha    CL        CD       CDp       CM     Top_Xtr  Bot_Xtr
  ------ -------- --------- --------- -------- -------- --------
 -20.000  -0.5669   0.24161   0.23601   0.0099   1.0000   0.0584
 -18.000  -0.4940   0.21503   0.20947  -0.0058   1.0000   0.0678
 -17.000  -0.4731   0.20653   0.20101  -0.0162   1.0000   0.0761
 -16.000  -0.4307   0.18854   0.18307  -0.0205   1.0000   0.0796
 -15.000  -0.4140   0.18003   0.17460  -0.0285   1.0000   0.0918
 -14.000  -0.3766   0.16246   0.15709  -0.0321   1.0000   0.0957
 -13.000  -0.3481   0.15037   0.14505  -0.0358   1.0000   0.1074
 -12.000  -0.3322   0.13672   0.13150  -0.0395   1.0000   0.1161
 -11.000  -0.3538   0.12803   0.12298  -0.0457   1.0000   0.1312
 -10.000  -0.3305   0.11192   0.10700  -0.0431   1.0000   0.1363
  -9.000  -0.3496   0.10268   0.09799  -0.0400   1.0000   0.1515
  -8.000  -0.4680   0.07888   0.07444  -0.0409   1.0000   0.1013
  -7.000  -0.6173   0.04495   0.03919  -0.0569   0.9803   0.0944
  -5.000  -0.3483   0.02724   0.01922  -0.0726   0.9203   0.1382
  -4.000  -0.1820   0.02338   0.01505  -0.0803   0.8924   0.1874
  -3.000  -0.0343   0.02075   0.01255  -0.0838   0.8593   0.2681
  -2.000   0.0965   0.01854   0.01075  -0.0838   0.8198   0.3947
   0.000   0.3582   0.01618   0.00985  -0.0781   0.7364   0.9242
   1.000   0.5838   0.01633   0.00945  -0.0977   0.6876   1.0000
   2.000   0.6732   0.01685   0.00952  -0.0922   0.6468   1.0000
   3.000   0.7589   0.01796   0.01047  -0.0856   0.6055   1.0000
   4.000   0.8627   0.01909   0.01132  -0.0813   0.5679   1.0000
   5.000   0.9519   0.02067   0.01298  -0.0748   0.5261   1.0000
   6.000   1.0554   0.02205   0.01428  -0.0701   0.4834   1.0000
   7.000   1.1508   0.02333   0.01554  -0.0638   0.4345   1.0000
   8.000   1.2277   0.02475   0.01706  -0.0545   0.3797   1.0000
   9.000   1.2668   0.02692   0.01939  -0.0402   0.3203   1.0000
  10.000   1.2839   0.03098   0.02343  -0.0261   0.2584   1.0000
  11.000   1.2845   0.03828   0.03072  -0.0154   0.2020   1.0000
  12.000   1.2826   0.04784   0.04030  -0.0083   0.1595   1.0000
  13.000   1.2695   0.06018   0.05308  -0.0048   0.1319   1.0000
  14.000   1.2463   0.07530   0.06864  -0.0043   0.1144   1.0000
  15.000   1.2000   0.09494   0.08879  -0.0091   0.1023   1.0000
  16.000   1.0224   0.14163   0.13621  -0.0343   0.0996   1.0000
  17.000   0.9140   0.19229   0.18688  -0.0631   0.0960   1.0000
  18.000   0.9208   0.21680   0.21147  -0.0757   0.1030   1.0000
  19.000   0.9567   0.24435   0.23913  -0.0829   0.1183   1.0000
  20.000   0.5863   0.18880   0.18427  -0.0467   0.1122   1.0000

  
       XFOIL         Version 6.97
  
 Calculated polar for: NACA 3415                                       
  
 1 1 Reynolds number fixed          Mach number fixed         
  
 xtrf =   1.000 (top)        1.000 (bottom)  
 Mach =   0.350     Re =     0.250 e 6     Ncrit =   9.000
  
   alpha    CL        CD       CDp       CM     Top_Xtr  Bot_Xtr
  ------ -------- --------- --------- -------- -------- --------

  
       XFOIL         Version 6.97
  
 Calculated polar for: NACA 3415                                       
  
 1 1 Reynolds number fixed          Mach number fixed         
  
 xtrf =   1.000 (top)        1.000 (bottom)  
 Mach =   0.350     Re =     0.500 e 6     Ncrit =   9.000
  
   alpha    CL        CD       CDp       CM     Top_Xtr  Bot_Xtr
  ------ -------- --------- --------- -------- -------- --------
 -20.000  -0.5701   0.23730   0.23448   0.0099   1.0000   0.0247
 -19.000  -0.5441   0.22129   0.21847  -0.0023   1.0000   0.0262
 -18.000  -0.5008   0.20843   0.20562  -0.0066   1.0000   0.0280
 -17.000  -0.4727   0.19403   0.19124  -0.0166   1.0000   0.0330
 -16.000  -0.4491   0.17756   0.17478  -0.0251   1.0000   0.0334
 -15.000  -0.4086   0.16584   0.16307  -0.0278   1.0000   0.0363
 -14.000  -0.4066   0.14470   0.14193  -0.0368   1.0000   0.0323
 -13.000  -0.4257   0.12114   0.11838  -0.0462   1.0000   0.0338
 -12.000  -0.4414   0.10261   0.09990  -0.0532   1.0000   0.0356
 -11.000  -0.7552   0.04425   0.04106  -0.0854   1.0000   0.0353
 -10.000  -0.7655   0.02989   0.02586  -0.0951   0.9851   0.0373
  -9.000  -0.6639   0.02201   0.01695  -0.0987   0.9671   0.0423
  -8.000  -0.5441   0.01776   0.01222  -0.0989   0.9458   0.0499
  -7.000  -0.4319   0.01487   0.00899  -0.0960   0.9190   0.0598
  -6.000  -0.3195   0.01292   0.00679  -0.0926   0.8873   0.0740
  -5.000  -0.2050   0.01150   0.00519  -0.0898   0.8499   0.0960
  -4.000  -0.0872   0.01053   0.00411  -0.0877   0.8076   0.1312
  -3.000   0.0293   0.00979   0.00334  -0.0857   0.7581   0.1878
  -2.000   0.1454   0.00934   0.00292  -0.0839   0.7048   0.2671
  -1.000   0.2599   0.00899   0.00270  -0.0820   0.6508   0.3796
   0.000   0.3696   0.00843   0.00276  -0.0794   0.6012   0.6175
   1.000   0.4771   0.00826   0.00309  -0.0754   0.5592   0.8254
   2.000   0.6004   0.00870   0.00360  -0.0742   0.5223   0.9618
   3.000   0.7799   0.00948   0.00415  -0.0859   0.4849   0.9982
   4.000   0.8799   0.01001   0.00458  -0.0813   0.4537   1.0000
   5.000   0.9744   0.01066   0.00515  -0.0752   0.4191   1.0000
   6.000   1.0703   0.01154   0.00595  -0.0693   0.3779   1.0000
   7.000   1.1607   0.01273   0.00703  -0.0625   0.3271   1.0000
   8.000   1.2356   0.01449   0.00869  -0.0534   0.2681   1.0000
   9.000   1.2958   0.01744   0.01147  -0.0435   0.2018   1.0000
  10.000   1.3379   0.02205   0.01594  -0.0337   0.1413   1.0000
  11.000   1.3642   0.02876   0.02267  -0.0254   0.0998   1.0000
  12.000   1.3819   0.03747   0.03161  -0.0198   0.0778   1.0000
  13.000   1.3804   0.04918   0.04360  -0.0168   0.0640   1.0000
  14.000   1.3603   0.06386   0.05857  -0.0162   0.0551   1.0000
  15.000   1.3503   0.07838   0.07346  -0.0172   0.0488   1.0000
  16.000   1.3258   0.09520   0.09059  -0.0201   0.0436   1.0000
  17.000   1.3096   0.11191   0.10767  -0.0244   0.0396   1.0000
  18.000   1.2835   0.13052   0.12657  -0.0313   0.0361   1.0000
  19.000   1.2512   0.15180   0.14834  -0.0417   0.0340   1.0000
  20.000   1.2064   0.17739   0.17437  -0.0573   0.0315   1.0000

  
       XFOIL         Version 6.97
  
 Calculated polar for: NACA 3415                                       
  
 1 1 Reynolds number fixed          Mach number fixed         
  
 xtrf =   1.000 (top)        1.000 (bottom)  
 Mach =   0.350     Re =     1.000 e 6     Ncrit =   9.000
  
   alpha    CL        CD       CDp       CM     Top_Xtr  Bot_Xtr
  ------ -------- --------- --------- -------- -------- --------
 -20.000  -0.2868   0.16401   0.16233  -0.0271   1.0000   0.0175

  
       XFOIL         Version 6.97
  
 Calculated polar for: NACA 3415                                       
  
 1 1 Reynolds number fixed          Mach number fixed         
  
 xtrf =   1.000 (top)        1.000 (bottom)  
 Mach =   0.350     Re =     2.000 e 6     Ncrit =   9.000
  
   alpha    CL        CD       CDp       CM     Top_Xtr  Bot_Xtr
  ------ -------- --------- --------- -------- -------- --------
 -20.000  -0.5921   0.22560   0.22417   0.0080   1.0000   0.0102
 -19.000  -0.5608   0.21107   0.20963  -0.0007   1.0000   0.0113
 -18.000  -0.5338   0.19508   0.19364  -0.0094   1.0000   0.0119
 -17.000  -0.5562   0.16663   0.16517  -0.0227   1.0000   0.0154
 -16.000  -0.6718   0.12617   0.12459  -0.0444   1.0000   0.0184
 -15.000  -0.7852   0.09306   0.09125  -0.0639   1.0000   0.0189
 -14.000  -0.9304   0.06052   0.05849  -0.0847   1.0000   0.0188
 -13.000  -1.0594   0.03112   0.02864  -0.1045   0.9999   0.0187
 -12.000  -1.0055   0.02054   0.01731  -0.1113   0.9846   0.0198
 -11.000  -0.9308   0.01588   0.01206  -0.1040   0.9569   0.0222
 -10.000  -0.8257   0.01343   0.00923  -0.0983   0.9276   0.0249
  -9.000  -0.7121   0.01154   0.00694  -0.0938   0.8933   0.0283
  -8.000  -0.5907   0.01030   0.00547  -0.0909   0.8615   0.0329
  -7.000  -0.4683   0.00924   0.00423  -0.0886   0.8269   0.0406
  -6.000  -0.3459   0.00851   0.00331  -0.0867   0.7822   0.0504
  -5.000  -0.2229   0.00797   0.00262  -0.0854   0.7353   0.0647
  -4.000  -0.1008   0.00751   0.00209  -0.0843   0.6858   0.0902
  -3.000   0.0209   0.00720   0.00174  -0.0834   0.6332   0.1264
  -2.000   0.1424   0.00701   0.00153  -0.0827   0.5819   0.1754
  -1.000   0.2637   0.00690   0.00146  -0.0822   0.5355   0.2408
   0.000   0.3850   0.00680   0.00148  -0.0818   0.4973   0.3268
   1.000   0.5047   0.00657   0.00160  -0.0812   0.4641   0.4907
   2.000   0.6242   0.00640   0.00183  -0.0805   0.4365   0.6737
   3.000   0.7413   0.00634   0.00219  -0.0789   0.4086   0.8467
   4.000   0.8567   0.00660   0.00263  -0.0764   0.3773   0.9679
   5.000   1.0050   0.00741   0.00323  -0.0814   0.3271   0.9978
   6.000   1.1096   0.00832   0.00393  -0.0771   0.2734   1.0000
   7.000   1.2041   0.00966   0.00497  -0.0709   0.2094   1.0000
   8.000   1.2886   0.01131   0.00639  -0.0630   0.1499   1.0000
   9.000   1.3596   0.01356   0.00844  -0.0533   0.0992   1.0000
  10.000   1.4269   0.01637   0.01118  -0.0443   0.0679   1.0000
  11.000   1.4902   0.01989   0.01476  -0.0361   0.0514   1.0000
  12.000   1.5410   0.02485   0.01984  -0.0285   0.0398   1.0000
  13.000   1.5787   0.03159   0.02681  -0.0222   0.0330   1.0000
  14.000   1.5940   0.04125   0.03672  -0.0177   0.0278   1.0000
  15.000   1.5992   0.05294   0.04873  -0.0154   0.0251   1.0000
  16.000   1.5722   0.06863   0.06472  -0.0154   0.0221   1.0000
  17.000   1.5374   0.08606   0.08252  -0.0177   0.0209   1.0000
  18.000   1.4993   0.10465   0.10143  -0.0220   0.0197   1.0000
  19.000   1.4558   0.12491   0.12200  -0.0290   0.0184   1.0000
  20.000   1.4064   0.14699   0.14437  -0.0392   0.0173   1.0000

  
       XFOIL         Version 6.97
  
 Calculated polar for: NACA 3415                                       
  
 1 1 Reynolds number fixed          Mach number fixed         
  
 xtrf =   1.000 (top)        1.000 (bottom)  
 Mach =   0.350     Re =     4.000 e 6     Ncrit =   9.000
  
   alpha    CL        CD       CDp       CM     Top_Xtr  Bot_Xtr
  ------ -------- --------- --------- -------- -------- --------
 -20.000  -0.6156   0.21736   0.21633   0.0054   1.0000   0.0091
 -19.000  -0.6376   0.18825   0.18719  -0.0099   1.0000   0.0121
 -18.000  -0.7167   0.15274   0.15153  -0.0306   1.0000   0.0140
 -17.000  -0.7789   0.12556   0.12421  -0.0468   1.0000   0.0144
 -16.000  -0.8799   0.09556   0.09403  -0.0655   1.0000   0.0146
 -15.000  -1.0828   0.05700   0.05527  -0.0920   1.0000   0.0144
 -14.000  -1.2047   0.02755   0.02532  -0.1144   0.9997   0.0145
 -13.000  -1.1668   0.01891   0.01603  -0.1130   0.9771   0.0149
 -12.000  -1.0881   0.01473   0.01128  -0.1044   0.9449   0.0168
 -11.000  -0.9753   0.01254   0.00874  -0.0987   0.9150   0.0188
 -10.000  -0.8536   0.01105   0.00695  -0.0945   0.8809   0.0202
  -9.000  -0.7311   0.00967   0.00531  -0.0911   0.8467   0.0246
  -8.000  -0.6052   0.00878   0.00421  -0.0887   0.8093   0.0283
  -7.000  -0.4791   0.00809   0.00337  -0.0869   0.7673   0.0334
  -6.000  -0.3536   0.00753   0.00266  -0.0855   0.7212   0.0417
  -5.000  -0.2289   0.00709   0.00211  -0.0844   0.6711   0.0562
  -4.000  -0.1047   0.00677   0.00171  -0.0837   0.6185   0.0749
  -3.000   0.0192   0.00657   0.00144  -0.0831   0.5665   0.1029
  -2.000   0.1429   0.00640   0.00127  -0.0829   0.5234   0.1428
  -1.000   0.2667   0.00627   0.00120  -0.0828   0.4850   0.1968
   0.000   0.3909   0.00619   0.00121  -0.0829   0.4565   0.2578
   1.000   0.5148   0.00612   0.00129  -0.0830   0.4306   0.3458
   2.000   0.6370   0.00593   0.00145  -0.0828   0.4049   0.5117
   3.000   0.7584   0.00590   0.00172  -0.0824   0.3734   0.6714
   4.000   0.8764   0.00611   0.00214  -0.0810   0.3285   0.8238
   5.000   0.9861   0.00657   0.00274  -0.0775   0.2783   0.9598
   6.000   1.1187   0.00764   0.00356  -0.0791   0.2169   0.9990
   7.000   1.2180   0.00889   0.00454  -0.0737   0.1559   1.0000
   8.000   1.3099   0.01048   0.00586  -0.0670   0.1027   1.0000
   9.000   1.3894   0.01219   0.00746  -0.0580   0.0700   1.0000
  10.000   1.4692   0.01422   0.00947  -0.0498   0.0516   1.0000
  11.000   1.5394   0.01706   0.01232  -0.0413   0.0378   1.0000
  12.000   1.6031   0.02076   0.01613  -0.0333   0.0303   1.0000
  13.000   1.6576   0.02574   0.02128  -0.0263   0.0256   1.0000
  14.000   1.6916   0.03304   0.02878  -0.0201   0.0212   1.0000
  15.000   1.7129   0.04237   0.03836  -0.0157   0.0191   1.0000
  16.000   1.7023   0.05555   0.05182  -0.0135   0.0165   1.0000
  17.000   1.6852   0.07019   0.06677  -0.0133   0.0157   1.0000
  18.000   1.6475   0.08765   0.08454  -0.0155   0.0149   1.0000
  19.000   1.6029   0.10661   0.10379  -0.0201   0.0140   1.0000
  20.000   1.5517   0.12741   0.12487  -0.0276   0.0131   1.0000

